<?xml version="1.0" encoding="UTF-8"?>

<!-- generated on jue 18 feb 2021 11:03:15 CET by Eclipse SUMO netedit Version 1.5.0
<configuration xmlns:xsi="http://www.w3.org/2001/XMLSchema-instance" xsi:noNamespaceSchemaLocation="http://sumo.dlr.de/xsd/netconvertConfiguration.xsd">

    <input>
        <sumo-net-file value="/root/Desktop/MSWIM/Revista/sim_files/templates/osm.net.xml"/>
    </input>

    <output>
        <output-file value="/root/Desktop/MSWIM/Revista/sim_files/templates/osm.net.xml"/>
        <output.street-names value="true"/>
    </output>

    <processing>
        <geometry.min-radius.fix.railways value="false"/>
        <geometry.max-grade.fix value="false"/>
        <offset.disable-normalization value="true"/>
        <lefthand value="false"/>
    </processing>

    <junctions>
        <no-turnarounds value="true"/>
        <junctions.corner-detail value="5"/>
        <junctions.limit-turn-speed value="5.5"/>
        <rectangular-lane-cut value="false"/>
    </junctions>

    <pedestrian>
        <walkingareas value="false"/>
    </pedestrian>

    <netedit>
        <additional-files value="/root/Desktop/MSWIM/Revista/sim_files/templates/new_detector.add.xml"/>
    </netedit>

    <report>
        <aggregate-warnings value="5"/>
    </report>

</configuration>
-->

<additional xmlns:xsi="http://www.w3.org/2001/XMLSchema-instance" xsi:noNamespaceSchemaLocation="http://sumo.dlr.de/xsd/additional_file.xsd">
    <e1Detector id="L0" lane="237517575#8_0" pos="4.50" freq="3600.00" file="detector.xml"/>
    <e1Detector id="L1" lane="237517575#8_1" pos="4.50" freq="3600.00" file="detector.xml"/>
    <e1Detector id="L3" lane="449991616#19_0" pos="74.28" freq="3600.00" name="detector.xml" file="L3.xml"/>
</additional>
